New first line by Jenny.
Cold and dry, but everything is my favorite color.
The two moons may be a problem.
New line.

This is a modification for my collaborator Ray Lucas.
I added this line. - Ray Lucas
And this is a new last line. - RAL
